project/outputs/reanudacion_20260910/psse_full/solved_raw/V26p_Trs_2532_solved.raw
@!IC, SBASE,REV,XFRRAT,NXFRAT,BASFRQ
0,   100.00, 34,     0,     1, 50.00     / PSS(R)E-34.9    THU, SEP 10 2026  11:20
GUIA DE REFERENCIA TRANSENER 2025 - 2032
CASO: V26P - PICO VERANO 2025/26 - SADI: 31625 MW
GENERAL, THRSHZ=0.0001, PQBRAK=0.7, BLOWUP=5.0
GAUSS, ITMX=100, ACCP=1.6, ACCQ=1.6, ACCM=1.0, TOL=0.0001
NEWTON, ITMXN=40, ACCN=0.5, TOLN=1.0, VCTOLQ=0.1, VCTOLV=0.00001, DVLIM=0.99, NDVFCT=0.99
ADJUST, ADJTHR=0.005, ACCTAP=1.0, TAPLIM=0.05, SWVBND=100.0, MXTPSS=99, MXSWIM=10
TYSL, ITMXTY=20, ACCTY=1.0, TOLTY=0.00001
SOLVER, FNSL, ACTAPS=0, AREAIN=0, PHSHFT=0, DCTAPS=1, SWSHNT=2, FLATST=0, VARLIM=0, NONDIV=0
RATING, 1, "RATE1 ", "RATING SET 1                    "
RATING, 2, "RATE2 ", "RATING SET 2                    "
RATING, 3, "RATE3 ", "RATING SET 3                    "
RATING, 4, "RATE4 ", "RATING SET 4                    "
RATING, 5, "RATE5 ", "RATING SET 5                    "
RATING, 6, "RATE6 ", "RATING SET 6                    "
RATING, 7, "RATE7 ", "RATING SET 7                    "
RATING, 8, "RATE8 ", "RATING SET 8                    "
RATING, 9, "RATE9 ", "RATING SET 9                    "
RATING,10, "RATE10", "RATING SET 10                   "
RATING,11, "RATE11", "RATING SET 11                   "
RATING,12, "RATE12", "RATING SET 12                   "
0 / END OF SYSTEM-WIDE DATA, BEGIN BUS DATA
@!   I,'NAME        ', BASKV, IDE,AREA,ZONE,OWNER, VM,        VA,    NVHI,   NVLO,   EVHI,   EVLO
    10,'NPMADRYN    ', 500.0000,1,  21,  51,  10,1.02603,  17.7454,1.03000,0.97000,1.05000,0.95000
    11,'NPMD.CHL    ', 500.0000,1,  21,  51,  10,0.98238,  26.3787,1.05000,0.95000,1.05000,0.95000
    12,'SCN_500     ', 500.0000,1,  21,  52,  10,1.01466,  21.4974,1.03000,0.97000,1.05000,0.95000
    15,'RSCRUZ      ', 500.0000,1,  21,  52,  10,1.00955,  20.5213,1.03000,0.97000,1.05000,0.95000
    19,'ESPERANZ    ', 500.0000,1,  21,  52,  10,1.00705,  20.1214,1.03000,0.97000,1.05000,0.95000
    20,'GARACCB1    ', 525.0000,4,  20,  49,  10,1.00000,   0.0000,1.10000,0.90000,1.10000,0.90000
    22,'GARACCB2    ', 525.0000,4,  20,  49,  10,1.00000,   0.0000,1.10000,0.90000,1.10000,0.90000
    30,'ITA         ', 525.0000,4,  20,  49,  10,1.00000,   0.0000,1.10000,0.90000,1.10000,0.90000
    85,'INV B1  2345', 500.0000,1,  20,  50,  10,0.99910,  15.1499,1.10000,0.90000,1.10000,0.90000
    86,'IBT F1  2345', 345.0000,1,  20,  50,  10,1.04151,   0.1686,1.10000,0.90000,1.10000,0.90000
    87,'INF B1      ', 345.0000,3,  20,  50,  10,1.04000,   0.0000,1.10000,0.90000,1.10000,0.90000
   100,'FUTAL330    ', 330.0000,1,  21,  51,  10,1.04545,  40.2341,1.10000,0.90000,1.10000,0.90000
   102,'FUTAHI01    ',  13.8000,2,  21,  51,   6,1.04000,  44.2620,1.10000,0.90000,1.10000,0.90000
   104,'FUTAHI02    ',  13.8000,2,  21,  51,   6,1.04000,  44.2620,1.10000,0.90000,1.10000,0.90000
   106,'FUTAHI03    ',  13.8000,2,  21,  51,   6,1.04000,  44.2620,1.10000,0.90000,1.10000,0.90000
   108,'FUTAHI04    ',  13.8000,2,  21,  51,   6,1.04000,  44.2620,1.10000,0.90000,1.10000,0.90000
   115,'R.TURBIO    ', 220.0000,1,  21,  52,   1,1.02010,  18.4954,1.10000,0.90000,1.10000,0.90000
   117,'ESPERANZ    ', 220.0000,1,  21,  52,   1,1.01323,  19.0188,1.05000,0.95000,1.10000,0.90000
   118,'RGALLEGO    ', 220.0000,1,  21,  52,   1,1.01535,  17.8902,1.10000,0.90000,1.10000,0.90000
   190,'ALTG09CC    ',  10.5000,2,  16,  53,   8,1.04170,  25.6910,1.10000,0.90000,1.10000,0.90000
   191,'ALTG10CC    ',  10.5000,2,  16,  53,   8,1.04170,  25.6910,1.10000,0.90000,1.10000,0.90000
   192,'ALTV11CC    ',  10.5000,2,  16,  53,   8,1.04240,  25.2798,1.10000,0.90000,1.10000,0.90000
   193,'SERIE DT    ', 132.0000,1,  16,  53,   2,1.00000,  19.6007,1.10000,0.90000,1.10000,0.90000
   200,'PMADR330    ', 330.0000,1,  21,  51,   1,1.00558,  20.9066,1.10000,0.90000,1.10000,0.90000
   201,'AL-FIAT1    ',  13.2000,4,  16,  53,   4,1.00000,   0.0000,1.10000,0.90000,1.10000,0.90000
   202,'AL-FIAT2    ',  13.2000,4,  16,  53,   4,1.00000,   0.0000,1.10000,0.90000,1.10000,0.90000
   203,'AL-FIAT3    ',  13.2000,4,  16,  53,   4,1.00000,   0.0000,1.10000,0.90000,1.10000,0.90000
   204,'AL-FIAT4    ',  13.2000,4,  16,  53,   4,1.00000,   0.0000,1.10000,0.90000,1.10000,0.90000
   205,'ALUATG05    ',  11.0000,4,  16,  53,   4,1.00000,   0.0000,1.10000,0.90000,1.10000,0.90000
   206,'ALUATG06    ',  11.0000,4,  16,  53,   4,1.00000,   0.0000,1.10000,0.90000,1.10000,0.90000
   207,'ALUATG07    ',  11.0000,2,  16,  53,   8,1.02048,  13.7742,1.10000,0.90000,1.10000,0.90000
   208,'ALUATG08    ',  11.0000,2,  16,  53,   8,1.02048,  13.7742,1.10000,0.90000,1.10000,0.90000
   209,'ALUATV01    ',  11.0000,2,  16,  53,   8,1.02048,  13.7742,1.10000,0.90000,1.10000,0.90000
   210,'APPA330A    ', 330.0000,1,  16,  53,   2,1.00522,  20.8407,1.10000,0.90000,1.10000,0.90000
   211,'APPA330B    ', 330.0000,1,  16,  53,   2,1.00522,  20.8535,1.10000,0.90000,1.10000,0.90000
   212,'AL-CE0A2    ',  33.0000,1,  16,  53,   2,1.02048,  13.7742,1.10000,0.90000,1.10000,0.90000
   213,'APPA330C    ', 330.0000,1,  16,  53,   2,1.00523,  20.8535,1.10000,0.90000,1.10000,0.90000
   214,'AL-CE0B     ',  33.0000,4,  16,  53,   2,1.00000,   0.0000,1.10000,0.90000,1.10000,0.90000
   215,'LA FLECHA   ', 132.0000,4,  16,  53,  10,1.00000,   0.0000,1.10000,0.90000,1.10000,0.90000
   216,'AL-CE0A4    ',  33.0000,1,  16,  53,   2,1.02048,  13.7742,1.10000,0.90000,1.10000,0.90000
   217,'AL-CE0A5    ',  33.0000,1,  16,  53,   2,1.02048,  13.7742,1.10000,0.90000,1.10000,0.90000
   218,'AL-CE0A3    ',  33.0000,1,  16,  53,   2,1.02048,  13.7742,1.10000,0.90000,1.10000,0.90000
   219,'AEG         ',  13.2000,2,  16,  53,   4,1.02048,  13.7742,1.10000,0.90000,1.10000,0.90000
   220,'PMADRYN1    ', 132.0000,1,  21,  51,   1,1.03328,  20.7692,1.10000,0.90000,1.10000,0.90000
   221,'PMADRYN2    ', 132.0000,1,  21,  51,  10,1.03897,  20.3229,1.05000,0.95000,1.10000,0.90000
   222,'AL-CE0A1    ',  33.0000,1,  16,  53,   2,1.00054,  19.7358,1.10000,0.90000,1.10000,0.90000
   223,'LB ESTE     ', 132.0000,1,  21,  51,  10,1.04259,  22.1753,1.10000,0.90000,1.10000,0.90000
   224,'NPMAD330    ', 330.0000,1,  21,  51,  10,1.00564,  20.8891,1.05000,0.95000,1.10000,0.90000
   226,'LB OESTE    ', 132.0000,1,  21,  51,  10,1.04585,  22.0241,1.10000,0.90000,1.10000,0.90000
   227,'SERV AUX    ',  33.0000,1,  16,  53,   2,1.02048,  13.7742,1.10000,0.90000,1.10000,0.90000
   230,'DGPAL132    ', 132.0000,1,  21,  51,  10,1.02805,  20.7023,1.10000,0.90000,1.10000,0.90000
   240,'TRELW132    ', 132.0000,1,  21,  51,  10,1.00313,  23.0643,1.10000,0.90000,1.10000,0.90000
   242,'TREW13.2    ',  13.2000,2,  21,  51,   1,0.96583,  18.7766,1.10000,0.90000,1.10000,0.90000
   243,'RAWSON      ', 132.0000,1,  21,  51,   1,1.00769,  23.9093,1.10000,0.90000,1.10000,0.90000
   244,'TRELEW33    ',  33.0000,1,  21,  51,   1,0.96660,  19.5909,1.10000,0.90000,1.10000,0.90000
   246,'PE_PMADR    ', 132.0000,1,  21,  51,  10,1.03916,  21.1057,1.10000,0.90000,1.10000,0.90000
   250,'AMEGH132    ', 132.0000,1,  21,  51,   1,1.03125,  27.3501,1.10000,0.90000,1.10000,0.90000
   251,'AMEGHI01    ',  13.2000,2,  21,  51,   6,1.04000,  29.2202,1.10000,0.90000,1.10000,0.90000
   252,'AMEGHI02    ',  13.2000,4,  21,  51,   6,1.00000,   0.0000,1.10000,0.90000,1.10000,0.90000
   253,'PE_ALUAR    ', 132.0000,1,  16,  53,  10,1.01072,  21.3802,1.10000,0.90000,1.10000,0.90000
   254,'ALUA33_01   ',  33.0000,1,  16,  53,  10,1.01367,  24.4890,1.10000,0.90000,1.10000,0.90000
   255,'ALUAR33_03  ',  33.0000,1,  16,  53,  10,1.01316,  24.5926,1.10000,0.90000,1.10000,0.90000
   256,'ALUAR33_07  ',  33.0000,1,  16,  53,  10,1.01740,  24.7013,1.10000,0.90000,1.10000,0.90000
   257,'ALUAR33_09  ',  33.0000,1,  16,  53,  10,1.01786,  24.9142,1.10000,0.90000,1.10000,0.90000
   258,'PER-132     ', 132.0000,1,  21,  51,   1,1.01059,  24.4459,1.10000,0.90000,1.10000,0.90000
   259,'AL-CEB      ', 132.0000,1,  16,  53,   2,1.00000,  19.6007,1.10000,0.90000,1.10000,0.90000
   261,'AL-CEA      ', 132.0000,1,  16,  53,   2,1.00000,  19.6007,1.10000,0.90000,1.10000,0.90000
   264,'FUTAL132    ', 132.0000,1,  21,  51,  10,1.04221,  38.8469,1.10000,0.90000,1.10000,0.90000
   265,'AL-CEB0C    ',  33.0000,1,  16,  53,   2,1.00054,  19.7358,1.10000,0.90000,1.10000,0.90000
   266,'ESQUE132    ', 132.0000,1,  21,  51,  10,1.03264,  38.3648,1.10000,0.90000,1.10000,0.90000
   268,'SERIE AT    ', 132.0000,1,  16,  53,   2,1.00000,  19.6007,1.10000,0.90000,1.10000,0.90000
   269,'SERIE BT    ', 132.0000,1,  16,  53,   2,1.00000,  19.6007,1.10000,0.90000,1.10000,0.90000
   271,'ELCOIHUE    ', 132.0000,1,  21,  51,   1,1.00195,  37.9374,1.10000,0.90000,1.10000,0.90000
   272,'CHUBUNOR2   ', 132.0000,1,  21,  51,  10,1.03393,  21.4467,1.10000,0.90000,1.10000,0.90000
   273,'PMADRYN2    ', 132.0000,1,  21,  51,  10,1.03897,  20.3229,1.10000,0.90000,1.10000,0.90000
   275,'LB          ', 132.0000,1,  21,  51,  10,1.04158,  22.5896,1.10000,0.90000,1.10000,0.90000
   280,'GOLONDRI    ',  13.2000,1,  21,  51,  10,1.03767,  36.6413,1.10000,0.90000,1.10000,0.90000
   281,'LIMRN-CH    ',  13.2000,1,  21,  51,  10,0.97757,  36.4993,1.10000,0.90000,1.10000,0.90000
   282,'ELBOLSON    ',  13.2000,1,  21,  51,   1,0.93276,  36.3815,1.10000,0.90000,1.10000,0.90000
   300,'SGRAN132    ', 132.0000,1,   7,  26,   1,0.99358,  15.0966,1.10000,0.90000,1.10000,0.90000
   304,'SGRA13.2    ',  13.2000,4,   7,  26,   4,1.00000,   0.0000,1.10000,0.90000,1.10000,0.90000
   310,'PCOLO132    ', 132.0000,1,   7,  26,  10,0.99338,  15.0435,1.10000,0.90000,1.10000,0.90000
   311,'MALASPINA   ', 132.0000,1,  21,  51,  10,1.02391,  31.0901,1.10000,0.90000,1.10000,0.90000
   315,'RSCRUZ      ', 132.0000,1,  21,  52,   1,1.03325,  20.2706,1.05000,0.95000,1.10000,0.90000
   316,'S.JULIAN    ', 132.0000,4,  21,  52,   1,1.00000,   0.0000,1.10000,0.90000,1.10000,0.90000
   317,'M.ESPEJO    ', 132.0000,4,  21,  52,   1,1.00000,   0.0000,1.10000,0.90000,1.10000,0.90000
   318,'GREGORES    ', 132.0000,4,  21,  52,   1,1.00000,   0.0000,1.10000,0.90000,1.10000,0.90000
   320,'SANOE132    ', 132.0000,1,   7,  26,   1,0.95499,  10.4146,1.10000,0.90000,1.10000,0.90000
   322,'SANES132    ', 132.0000,1,   7,  26,   1,0.95095,   9.8859,1.10000,0.90000,1.10000,0.90000
   330,'VIEDM132    ', 132.0000,1,   7,  26,   1,0.95932,   2.0166,1.10000,0.90000,1.10000,0.90000
   332,'VIED13.2    ',  13.2000,1,   7,  26,   1,0.97780,  -2.2798,1.10000,0.90000,1.10000,0.90000
   334,'VIEDMA33    ',  33.0000,1,   7,  26,  10,0.98661,  -0.7606,1.10000,0.90000,1.10000,0.90000
   400,'C.RIV.A1    ', 132.0000,1,  21,  51,  10,0.99600,  26.9253,1.10000,0.90000,1.10000,0.90000
   401,'C.RIV.A     ', 132.0000,1,  21,  51,  10,0.99594,  26.9197,1.10000,0.90000,1.10000,0.90000
   402,'GARAYALDE   ', 132.0000,1,  21,  51,  10,1.03322,  30.6129,1.10000,0.90000,1.10000,0.90000
   403,'HERCULES    ', 132.0000,1,  21,  52,  10,1.01513,  27.4839,1.10000,0.90000,1.10000,0.90000
   404,'ESCALANT    ', 132.0000,1,  21,  51,  10,0.98899,  27.7767,1.10000,0.90000,1.10000,0.90000
   405,'PE_MBEHR    ', 132.0000,1,  21,  51,  10,1.00117,  29.5609,1.10000,0.90000,1.10000,0.90000
   406,'CRIVTG26    ',  13.2000,2,  21,  51,   4,0.99594,  26.9197,1.10000,0.90000,1.10000,0.90000
   407,'GARA33_01   ',  33.0000,1,  21,  51,  10,1.02158,  34.0265,1.10000,0.90000,1.10000,0.90000
   408,'C.RIV.A1    ',  10.4000,1,  21,  51,   1,0.98534,  25.0879,1.10000,0.90000,1.10000,0.90000
   409,'CRIVTG21    ',  10.4000,2,  21,  51,   4,0.98534,  25.0879,1.10000,0.90000,1.10000,0.90000
   410,'C.RIV.A1    ',  66.0000,2,  21,  51,   1,0.99109,  27.6786,1.10000,0.90000,1.10000,0.90000
   411,'ESCALANT2   ', 132.0000,1,  21,  51,   1,0.98899,  27.7767,1.10000,0.90000,1.10000,0.90000
   412,'CT_MBEHR2   ', 132.0000,1,  21,  51,  10,1.00118,  29.5987,1.10000,0.90000,1.10000,0.90000
   413,'BICE33_02   ',  33.0000,1,  21,  52,  10,1.04157,  35.5628,1.10000,0.90000,1.10000,0.90000
   415,'GARA13_01   ',  13.2000,1,  21,  51,  10,1.02134,  34.2769,1.10000,0.90000,1.10000,0.90000
   416,'SEBER1      ',  66.0000,1,  21,  51,   1,1.00330,  29.4595,1.10000,0.90000,1.10000,0.90000
   417,'SEBER1_35   ',  35.0000,1,  21,  51,  10,0.98828,  32.4329,1.10000,0.90000,1.10000,0.90000
   418,'SEBER2      ',  35.0000,1,  21,  51,   1,0.99265,  32.9788,1.10000,0.90000,1.10000,0.90000
   420,'C.RIV.A1    ',  33.0000,2,  21,  51,   1,0.98432,  24.8551,1.10000,0.90000,1.10000,0.90000
   422,'CRIVTG23    ',  13.8000,2,  21,  51,   4,0.98087,  24.1903,1.10000,0.90000,1.10000,0.90000
   423,'MB_ALL_35   ',  35.0000,1,  21,  51,  10,0.99265,  32.9788,1.10000,0.90000,1.10000,0.90000
   424,'MB_JEN_35   ',  35.0000,1,  21,  51,  10,0.99265,  32.9788,1.10000,0.90000,1.10000,0.90000
   437,'CRIVTG78    ',  13.8000,2,  21,  51,   8,0.99594,  26.9197,1.10000,0.90000,1.10000,0.90000
   438,'CRIVTV25    ',  13.8000,2,  21,  51,   8,0.99594,  26.9197,1.10000,0.90000,1.10000,0.90000
   440,'VHERM132    ', 132.0000,2,  21,  51,   1,0.96276,  26.0782,1.10000,0.90000,1.10000,0.90000
   441,'SAN JOSE    ', 132.0000,1,  21,  52,   1,0.98581,  25.0735,1.10000,0.90000,1.10000,0.90000
   442,'CNEGR132    ', 132.0000,2,  21,  51,   1,0.95068,  25.4776,1.10000,0.90000,1.10000,0.90000
   444,'PAMCA132    ', 132.0000,2,  21,  51,   1,0.97939,  26.9919,1.10000,0.90000,1.10000,0.90000
   445,'TORDI132    ', 132.0000,2,  21,  51,   1,0.97826,  26.9298,1.10000,0.90000,1.10000,0.90000
   446,'LPER1132    ', 132.0000,1,  21,  52,   1,1.03114,  29.5484,1.10000,0.90000,1.10000,0.90000
   447,'LPER2132    ', 132.0000,4,  21,  52,   1,1.00000,   0.0000,1.10000,0.90000,1.10000,0.90000
   448,'LASHE132    ', 132.0000,2,  21,  52,   1,1.00220,  27.1005,1.10000,0.90000,1.10000,0.90000
   449,'DIADEMA     ', 132.0000,1,  21,  51,   1,0.99400,  27.6815,1.10000,0.90000,1.10000,0.90000
   450,'BSM132R     ', 132.0000,2,  21,  51,   1,0.99410,  26.9260,1.10000,0.90000,1.10000,0.90000
   451,'DIAD33_01   ',  33.0000,1,  21,  51,  10,0.97539,  30.2975,1.10000,0.90000,1.10000,0.90000
   453,'DIADEO01    ',   0.4000,2,  21,  51,  11,1.03000,  31.6614,1.10000,0.90000,1.10000,0.90000
   454,'C.OLIVIA    ', 132.0000,1,  21,  52,   1,1.03900,  30.6397,1.10000,0.90000,1.10000,0.90000
   455,'AIKE        ', 132.0000,1,  21,  52,   1,0.98994,  25.5337,1.10000,0.90000,1.10000,0.90000
   456,'ABASOLO     ', 132.0000,1,  21,  51,   1,0.99647,  27.0755,1.10000,0.90000,1.10000,0.90000
   457,'OROPLATA    ', 132.0000,1,  21,  52,   1,0.97798,  24.2503,1.10000,0.90000,1.10000,0.90000
   458,'C.LEON      ', 132.0000,1,  21,  52,  10,1.04277,  30.8667,1.10000,0.90000,1.10000,0.90000
   459,'PT1-132R    ', 132.0000,2,  21,  52,   1,1.02190,  25.3747,1.10000,0.90000,1.10000,0.90000
   460,'PT1-132M    ', 132.0000,1,  21,  52,   1,1.02190,  25.3747,1.10000,0.90000,1.10000,0.90000
   461,'SCN_132     ', 132.0000,1,  21,  52,  10,1.02258,  25.3029,1.05000,0.95000,1.10000,0.90000
   462,'PTRUN235    ',  35.0000,1,  21,  52,   1,1.01587,  25.5559,1.10000,0.90000,1.10000,0.90000
   463,'PTRUN35R    ',  35.0000,2,  21,  52,   1,1.01587,  25.5559,1.10000,0.90000,1.10000,0.90000
   464,'PTR1TG24    ',  13.8000,2,  21,  52,   4,0.97638,  25.5609,1.10000,0.90000,1.10000,0.90000
   465,'K.KAIKE     ', 132.0000,1,  21,  52,  10,1.01849,  26.4955,1.10000,0.90000,1.10000,0.90000
   466,'PTR1TG25    ',  10.5000,2,  21,  52,   4,0.97608,  25.5645,1.10000,0.90000,1.10000,0.90000
   467,'PCR         ', 132.0000,1,  21,  52,   1,1.02215,  25.4722,1.10000,0.90000,1.10000,0.90000
   468,'PTR1TG23    ',  10.5000,2,  21,  52,   4,1.01587,  25.5559,1.10000,0.90000,1.10000,0.90000
   470,'PT2--132    ', 132.0000,1,  21,  52,  10,1.02200,  25.3724,1.10000,0.90000,1.10000,0.90000
   472,'PT2-6.9     ',  35.0000,1,  21,  52,   1,1.02200,  25.3724,1.10000,0.90000,1.10000,0.90000
   474,'ELCORDON    ',  35.0000,1,  21,  52,   1,1.04230,  28.3272,1.10000,0.90000,1.10000,0.90000
   475,'HUEMUL      ',  35.0000,4,  21,  52,   1,1.00000,   0.0000,1.10000,0.90000,1.10000,0.90000
   476,'HUEMDI01    ',   0.4000,4,  21,  52,   1,1.00000,   0.0000,1.10000,0.90000,1.10000,0.90000
   477,'MESESPI     ',  35.0000,1,  21,  52,   1,1.05444,  30.6063,1.10000,0.90000,1.10000,0.90000
   478,'MESEDI01    ',   0.4000,2,  21,  52,   4,1.04000,  36.4196,1.10000,0.90000,1.10000,0.90000
   479,'SCN_TER1    ',  33.0000,1,  21,  52,  10,1.02534,  24.9663,1.10000,0.90000,1.10000,0.90000
   480,'PDES132M    ', 132.0000,1,  21,  52,   1,1.04629,  31.7148,1.10000,0.90000,1.10000,0.90000
   481,'PDES132R    ', 132.0000,4,  21,  52,   1,1.00000,   0.0000,1.10000,0.90000,1.10000,0.90000
   482,'C.MORO      ', 132.0000,4,  21,  52,   1,1.00000,   0.0000,1.10000,0.90000,1.10000,0.90000
   483,'PS.A.BIEDMA ', 132.0000,1,  21,  52,   1,1.04875,  31.9368,1.10000,0.90000,1.10000,0.90000
   484,'SCN_TER2    ',  33.0000,1,  21,  52,  10,1.02489,  25.0212,1.10000,0.90000,1.10000,0.90000
   490,'CTPAT132    ', 132.0000,1,  21,  51,  10,0.99915,  27.2673,1.10000,0.90000,1.10000,0.90000
   491,'PATATG01    ',  11.5000,2,  21,  51,   8,1.03000,  31.0213,1.10000,0.90000,1.10000,0.90000
   492,'PATATG02    ',  11.5000,2,  21,  51,   8,0.99915,  27.2673,1.10000,0.90000,1.10000,0.90000
   493,'PATATV01    ',  11.5000,2,  21,  51,   8,1.03000,  28.4726,1.10000,0.90000,1.10000,0.90000
   494,'CHUBUNOR    ', 132.0000,1,  21,  51,  10,1.03050,  21.7780,1.10000,0.90000,1.10000,0.90000
   495,'PEBICENT    ', 132.0000,1,  21,  52,  10,1.04806,  32.2967,1.10000,0.90000,1.10000,0.90000
   500,'HERC33_01   ',  33.0000,1,  21,  52,  10,1.00745,  30.2318,1.10000,0.90000,1.10000,0.90000
   501,'PM33_01     ',  33.0000,1,  21,  51,  10,1.00374,  21.2156,1.10000,0.90000,1.10000,0.90000
   504,'RSCRUZ      ',  33.0000,1,  21,  52,   1,1.03310,  20.2437,1.10000,0.90000,1.10000,0.90000
   506,'KKAI33_1    ',  33.0000,4,  21,  52,  11,1.00000,   0.0000,1.10000,0.90000,1.10000,0.90000
   508,'LBVI33_02   ',  33.0000,1,  21,  51,  10,0.99971,  24.2711,1.10000,0.90000,1.10000,0.90000
   510,'PM33_02     ',  33.0000,1,  21,  51,  10,1.03644,  20.7868,1.10000,0.90000,1.10000,0.90000
   511,'PM33_01     ',  33.0000,1,  21,  51,  10,1.03192,  20.7616,1.10000,0.90000,1.10000,0.90000
   512,'C.LEON33_01 ',  33.0000,1,  21,  52,  10,1.03413,  35.5120,1.10000,0.90000,1.10000,0.90000
   513,'C.LEON33_02 ',  33.0000,1,  21,  52,  10,1.04114,  36.3808,1.10000,0.90000,1.10000,0.90000
   514,'CRITER10    ',  13.2000,1,  21,  51,  10,0.99033,  27.7983,1.10000,0.90000,1.10000,0.90000
   515,'CRITER11    ',  13.2000,1,  21,  52,  10,0.99058,  27.7588,1.10000,0.90000,1.10000,0.90000
   516,'ESQ1.TER    ',  13.2000,1,  21,  51,  10,1.00375,  34.0121,1.10000,0.90000,1.10000,0.90000
   517,'BICE33_01   ',  33.0000,1,  21,  52,  10,1.03843,  35.4301,1.10000,0.90000,1.10000,0.90000
   518,'FUTA33_01   ',  33.0000,4,  21,  51,  10,1.00000,   0.0000,1.10000,0.90000,1.10000,0.90000
   519,'KOST33_01   ',  33.0000,1,  21,  51,  10,0.96522,  30.2213,1.10000,0.90000,1.10000,0.90000
   520,'ESQUEL33    ',  33.0000,1,  21,  51,   1,1.00458,  34.1534,1.10000,0.90000,1.10000,0.90000
   521,'BICE33_03   ',  33.0000,1,  21,  52,  10,1.04087,  35.6562,1.10000,0.90000,1.10000,0.90000
   522,'ELCOIHUE    ',  33.0000,1,  21,  51,   1,1.02415,  35.4976,1.10000,0.90000,1.10000,0.90000
   523,'RTURTV01    ',  11.0000,4,  21,  52,   5,1.00000,   0.0000,1.10000,0.90000,1.10000,0.90000
   524,'GOLONDRI    ',  33.0000,1,  21,  51,   1,1.01218,  37.3252,1.10000,0.90000,1.10000,0.90000
   525,'RTURTV02    ',  11.0000,4,  21,  52,   5,1.00000,   0.0000,1.10000,0.90000,1.10000,0.90000
   526,'CHNO33_01   ',  33.0000,1,  21,  51,  10,1.01073,  24.6002,1.10000,0.90000,1.10000,0.90000
   527,'ELBOLSON    ',  33.0000,1,  21,  51,  10,1.03928,  38.8392,1.10000,0.90000,1.10000,0.90000
   528,'R.ESCONDIDO ',  33.0000,1,  21,  51,  10,1.06164,  41.5330,1.10000,0.90000,1.10000,0.90000
   532,'LBVI33_03   ',  33.0000,1,  21,  51,  10,1.00157,  24.3863,1.10000,0.90000,1.10000,0.90000
   533,'PEM33_01    ',  33.0000,1,  21,  51,  10,1.02918,  23.7879,1.10000,0.90000,1.10000,0.90000
   534,'PEM33_02    ',  33.0000,1,  21,  51,  10,1.03307,  24.0850,1.10000,0.90000,1.10000,0.90000
   535,'CTMB36_01   ',  36.7000,1,  21,  51,   1,0.98406,  28.3282,1.10000,0.90000,1.10000,0.90000
   536,'MBE2DI01    ',  11.0000,2,  21,  51,  10,1.00000,  29.8278,1.10000,0.90000,1.10000,0.90000
   537,'COIHU6_01   ',   6.6000,1,  21,  51,  10,1.02416,  35.4979,1.10000,0.90000,1.10000,0.90000
   538,'LGO-EBL     ',  33.0000,1,  21,  51,  10,1.01626,  37.5395,1.10000,0.90000,1.10000,0.90000
   539,'LPU-EBL     ',  33.0000,1,  21,  51,  10,1.02762,  38.1601,1.10000,0.90000,1.10000,0.90000
   540,'HERC33_02   ',  33.0000,1,  21,  52,  10,1.00542,  30.0508,1.10000,0.90000,1.10000,0.90000
   541,'PEM33_03    ',  33.0000,1,  21,  51,  10,1.03957,  24.9871,1.10000,0.90000,1.10000,0.90000
   542,'PM33_02     ',  33.0000,1,  21,  51,  10,1.03833,  20.4678,1.10000,0.90000,1.10000,0.90000
   544,'DIAD33_02   ',  33.0000,1,  21,  51,  10,0.97539,  30.2975,1.10000,0.90000,1.10000,0.90000
   545,'ESP.TER1    ',  33.0000,1,  21,  52,   1,1.01489,  18.9302,1.10000,0.90000,1.10000,0.90000
   546,'ESP.TER2    ',  33.0000,1,  21,  52,   1,1.06617,  18.4716,1.10000,0.90000,1.10000,0.90000
...
0 / END OF BUS DATA, BEGIN LOAD DATA
@!   I,'ID',STAT,AREA,ZONE,      PL,        QL,        IP,        IQ,        YP,        YQ, OWNER,SCALE,INTRPT,  DGENP,     DGENQ, DGENF
    85,'1 ',   1,  18,  50,    59.728,     0.000,     0.000,     0.000,     0.000,     0.000,  10,    1,  0,     0.000,     0.000,   0
    86,'1 ',   1,  18,  50,    65.700,     0.000,     0.000,     0.000,     0.000,     0.000,  10,    1,  0,     0.000,     0.000,   0
   115,'1 ',   1,  21,  52,     5.361,     2.244,     0.000,     0.000,     0.000,     0.000,   1,    1,  0,     0.000,     0.000,   0
   118,'1 ',   1,  21,  52,    26.283,     5.069,     0.000,     0.000,     0.000,     0.000,   1,    1,  0,     0.000,     0.000,   0
   193,'1 ',   1,  16,  53,   240.000,   131.000,     0.000,     0.000,     0.000,     0.000,   2,    0,  0,     0.000,     0.000,   0
   214,'1 ',   1,  16,  53,    72.000,    40.800,     0.000,     0.000,     0.000,     0.000,   2,    0,  0,     0.000,     0.000,   0
   217,'1 ',   1,  16,  53,   102.000,    60.300,     0.000,     0.000,     0.000,     0.000,   2,    0,  0,     0.000,     0.000,   0
   222,'1 ',   0,  16,  53,    72.000,    40.800,     0.000,     0.000,     0.000,     0.000,   2,    0,  0,     0.000,     0.000,   0
   227,'1 ',   1,  16,  53,    26.000,    12.600,     0.000,     0.000,     0.000,     0.000,   3,    0,  0,     0.000,     0.000,   0
   230,'1 ',   1,  21,  51,    41.918,    14.680,     0.000,     0.000,     0.000,     0.000,   1,    1,  0,     0.000,     0.000,   0
   242,'1 ',   0,  21,  51,     5.458,     2.797,     0.000,     0.000,     0.000,     0.000,   1,    1,  0,     0.000,     0.000,   0
   242,'2 ',   0,  21,  51,    12.621,     5.964,     0.000,     0.000,     0.000,     0.000,   1,    1,  0,     0.000,     0.000,   0
   242,'3 ',   1,  21,  51,    15.179,     7.346,     0.000,     0.000,     0.000,     0.000,   1,    1,  0,     0.000,     0.000,   0
   243,'1 ',   1,  21,  51,    17.036,     3.801,     0.000,     0.000,     0.000,     0.000,   1,    1,  0,     0.000,     0.000,   0
   244,'1 ',   1,  21,  51,    35.776,    16.492,     0.000,     0.000,     0.000,     0.000,   1,    1,  0,     0.000,     0.000,   0
   250,'1 ',   1,  21,  51,     0.582,     0.244,     0.000,     0.000,     0.000,     0.000,   1,    1,  0,     0.000,     0.000,   0
   250,'2 ',   0,  21,  51,     0.000,     0.000,     0.000,     0.000,     0.000,     0.000,   1,    1,  0,     0.000,     0.000,   0
   259,'1 ',   1,  16,  53,    20.000,    11.000,     0.000,     0.000,     0.000,     0.000,   3,    0,  0,     0.000,     0.000,   0
   265,'1 ',   0,  16,  53,    72.000,    40.800,     0.000,     0.000,     0.000,     0.000,   2,    0,  0,     0.000,     0.000,   0
   268,'1 ',   1,  16,  53,   180.000,   115.300,     0.000,     0.000,     0.000,     0.000,   2,    0,  0,     0.000,     0.000,   0
   269,'1 ',   1,  16,  53,   180.000,   115.300,     0.000,     0.000,     0.000,     0.000,   2,    0,  0,     0.000,     0.000,   0
   282,'1 ',   1,  21,  51,     1.819,     0.875,     0.000,     0.000,     0.000,     0.000,   1,    1,  0,     0.000,     0.000,   0
   300,'1 ',   1,   7,  26,     4.737,     1.868,     0.000,     0.000,     0.000,     0.000,   1,    1,  0,     0.000,     0.000,   0
   310,'1 ',   1,   7,  26,     1.190,     0.460,     0.000,     0.000,     0.000,     0.000,   2,    0,  0,     0.000,     0.000,   0
   315,'1 ',   1,  21,  52,     1.815,     0.594,     0.000,     0.000,     0.000,     0.000,   1,    1,  0,     0.000,     0.000,   0
   315,'2 ',   1,  21,  52,     1.815,     0.594,     0.000,     0.000,     0.000,     0.000,   1,    1,  0,     0.000,     0.000,   0
   316,'1 ',   0,  21,  52,     4.833,     1.450,     0.000,     0.000,     0.000,     0.000,   1,    1,  0,     0.000,     0.000,   0
   317,'1 ',   0,  21,  52,    10.000,     3.000,     0.000,     0.000,     0.000,     0.000,   2,    0,  0,     0.000,     0.000,   0
   318,'1 ',   0,  21,  52,     1.878,     0.564,     0.000,     0.000,     0.000,     0.000,   1,    1,  0,     0.000,     0.000,   0
   320,'1 ',   1,   7,  26,    15.460,     5.079,     0.000,     0.000,     0.000,     0.000,   1,    1,  0,     0.000,     0.000,   0
   322,'1 ',   1,   7,  26,    16.867,     3.421,     0.000,     0.000,     0.000,     0.000,   1,    1,  0,     0.000,     0.000,   0
   332,'1 ',   1,   7,  26,    17.469,     8.488,     0.000,     0.000,     0.000,     0.000,   1,    1,  0,     0.000,     0.000,   0
   405,'1 ',   0,  21,  51,    33.888,    11.544,     0.000,     0.000,     0.000,     0.000,   2,    0,  0,     0.000,     0.000,   0
   408,'1 ',   0,  21,  51,     0.000,     0.000,     0.000,     0.000,     0.000,     0.000,   1,    1,  0,     0.000,     0.000,   0
   409,'1 ',   1,  21,  52,     5.694,     1.949,     0.000,     0.000,     0.000,     0.000,   1,    1,  0,     0.000,     0.000,   0
   409,'2 ',   0,  21,  52,     7.989,     2.734,     0.000,     0.000,     0.000,     0.000,   1,    1,  0,     0.000,     0.000,   0
   409,'3 ',   0,  21,  51,     2.207,     0.617,     0.000,     0.000,     0.000,     0.000,   1,    1,  0,     0.000,     0.000,   0
   410,'2 ',   0,  21,  51,    14.099,     6.455,     0.000,     0.000,     0.000,     0.000,   1,    1,  0,     0.000,     0.000,   0
   410,'3 ',   0,  21,  51,     0.134,     0.551,     0.000,     0.000,     0.000,     0.000,   1,    1,  0,     0.000,     0.000,   0
   411,'1 ',   1,  21,  51,    34.000,    22.400,     0.000,     0.000,     0.000,     0.000,   2,    0,  0,     0.000,     0.000,   0
   416,'1 ',   1,  21,  51,     0.748,     0.281,     0.000,     0.000,     0.000,     0.000,   1,    1,  0,     0.000,     0.000,   0
   418,'1 ',   1,  21,  51,    16.300,     7.000,     0.000,     0.000,     0.000,     0.000,   1,    0,  0,     0.000,     0.000,   0
   420,'1 ',   1,  21,  51,    15.503,     6.698,     0.000,     0.000,     0.000,     0.000,   1,    1,  0,     0.000,     0.000,   0
   420,'2 ',   1,  21,  51,    10.097,     4.113,     0.000,     0.000,     0.000,     0.000,   1,    1,  0,     0.000,     0.000,   0
   420,'3 ',   0,  21,  51,     4.900,     2.000,     0.000,     0.000,     0.000,     0.000,   1,    1,  0,     0.000,     0.000,   0
   422,'1 ',   1,  21,  51,    14.833,     4.041,     0.000,     0.000,     0.000,     0.000,   1,    1,  0,     0.000,     0.000,   0
   440,'1 ',   1,  21,  51,    11.191,     6.471,     0.000,     0.000,     0.000,     0.000,   1,    1,  0,     0.000,     0.000,   0
   440,'2 ',   0,  21,  51,    12.500,     4.000,     0.000,     0.000,     0.000,     0.000,   1,    1,  0,     0.000,     0.000,   0
   440,'3 ',   0,  21,  51,    14.988,     4.265,     0.000,     0.000,     0.000,     0.000,   1,    1,  0,     0.000,     0.000,   0
   441,'1 ',   1,  21,  52,     4.443,     1.921,     0.000,     0.000,     0.000,     0.000,   1,    1,  0,     0.000,     0.000,   0
   442,'1 ',   1,  21,  51,    12.888,     8.878,     0.000,     0.000,     0.000,     0.000,   1,    1,  0,     0.000,     0.000,   0
   442,'2 ',   0,  21,  51,     5.571,     2.551,     0.000,     0.000,     0.000,     0.000,   1,    1,  0,     0.000,     0.000,   0
   442,'3 ',   0,  21,  51,     2.500,     1.428,     0.000,     0.000,     0.000,     0.000,   1,    1,  0,     0.000,     0.000,   0
   444,'1 ',   1,  21,  51,    18.432,     4.164,     0.000,     0.000,     0.000,     0.000,   1,    1,  0,     0.000,     0.000,   0
   444,'2 ',   0,  21,  51,    12.166,     5.570,     0.000,     0.000,     0.000,     0.000,   1,    1,  0,     0.000,     0.000,   0
   444,'3 ',   0,  21,  51,     3.500,     0.658,     0.000,     0.000,     0.000,     0.000,   1,    1,  0,     0.000,     0.000,   0
   445,'1 ',   1,  21,  51,     5.851,     1.729,     0.000,     0.000,     0.000,     0.000,   1,    1,  0,     0.000,     0.000,   0
   445,'2 ',   0,  21,  51,     9.096,     4.165,     0.000,     0.000,     0.000,     0.000,   1,    1,  0,     0.000,     0.000,   0
   445,'3 ',   0,  21,  51,     3.500,     0.000,     0.000,     0.000,     0.000,     0.000,   1,    1,  0,     0.000,     0.000,   0
   446,'1 ',   1,  21,  52,    17.146,     9.443,     0.000,     0.000,     0.000,     0.000,   1,    1,  0,     0.000,     0.000,   0
   447,'1 ',   0,  21,  52,    23.200,    11.800,     0.000,     0.000,     0.000,     0.000,   1,    1,  0,     0.000,     0.000,   0
   447,'2 ',   0,  21,  52,    27.288,    12.494,     0.000,     0.000,     0.000,     0.000,   1,    1,  0,     0.000,     0.000,   0
   447,'3 ',   0,  21,  52,     3.000,     1.342,     0.000,     0.000,     0.000,     0.000,   1,    1,  0,     0.000,     0.000,   0
   448,'1 ',   1,  21,  52,    29.718,    17.078,     0.000,     0.000,     0.000,     0.000,   1,    1,  0,     0.000,     0.000,   0
   448,'2 ',   0,  21,  52,    26.500,    11.661,     0.000,     0.000,     0.000,     0.000,   1,    1,  0,     0.000,     0.000,   0
   448,'3 ',   0,  21,  52,    10.299,     5.199,     0.000,     0.000,     0.000,     0.000,   1,    1,  0,     0.000,     0.000,   0
   450,'1 ',   0,  21,  51,    30.100,    15.400,     0.000,     0.000,     0.000,     0.000,   1,    1,  0,     0.000,     0.000,   0
   450,'2 ',   0,  21,  51,     0.000,     0.000,     0.000,     0.000,     0.000,     0.000,   1,    1,  0,     0.000,     0.000,   0
   450,'3 ',   0,  21,  51,     0.000,     0.000,     0.000,     0.000,     0.000,     0.000,   1,    1,  0,     0.000,     0.000,   0
   450,'4 ',   1,  21,  52,    32.185,     8.884,     0.000,     0.000,     0.000,     0.000,   1,    1,  0,     0.000,     0.000,   0
   451,'1 ',   1,  21,  51,     2.926,     0.293,     0.000,     0.000,     0.000,     0.000,   1,    1,  0,     0.000,     0.000,   0
   454,'1 ',   1,  21,  52,    10.534,     3.998,     0.000,     0.000,     0.000,     0.000,   1,    1,  0,     0.000,     0.000,   0
   456,'1 ',   1,  21,  51,    19.456,     7.925,     0.000,     0.000,     0.000,     0.000,   1,    1,  0,     0.000,     0.000,   0
   457,'1 ',   1,  21,  52,    16.500,     4.500,     0.000,     0.000,     0.000,     0.000,   2,    0,  0,     0.000,     0.000,   0
   459,'2 ',   0,  21,  52,     5.276,     1.803,     0.000,     0.000,     0.000,     0.000,   1,    1,  0,     0.000,     0.000,   0
   459,'3 ',   0,  21,  52,     7.732,     3.575,     0.000,     0.000,     0.000,     0.000,   1,    1,  0,     0.000,     0.000,   0
   460,'1 ',   1,  21,  52,    19.236,     7.897,     0.000,     0.000,     0.000,     0.000,   1,    1,  0,     0.000,     0.000,   0
   462,'1 ',   0,  21,  52,    27.630,    11.790,     0.000,     0.000,     0.000,     0.000,   1,    1,  0,     0.000,     0.000,   0
   463,'1 ',   1,  21,  52,     7.714,     5.914,     0.000,     0.000,     0.000,     0.000,   1,    1,  0,     0.000,     0.000,   0
   463,'2 ',   0,  21,  52,    15.000,     5.000,     0.000,     0.000,     0.000,     0.000,   1,    1,  0,     0.000,     0.000,   0
   467,'1 ',   1,  21,  52,     5.820,     1.915,     0.000,     0.000,     0.000,     0.000,   1,    1,  0,     0.000,     0.000,   0
   472,'1 ',   1,  21,  52,     0.000,     0.000,     0.000,     0.000,     0.000,     0.000,   1,    1,  0,     0.000,     0.000,   0
   472,'2 ',   0,  21,  52,     0.000,     0.000,     0.000,     0.000,     0.000,     0.000,   1,    1,  0,     0.000,     0.000,   0
   480,'1 ',   1,  21,  52,     4.161,     2.015,     0.000,     0.000,     0.000,     0.000,   1,    1,  0,     0.000,     0.000,   0
   481,'1 ',   0,  21,  52,     4.700,     3.500,     0.000,     0.000,     0.000,     0.000,   1,    1,  0,     0.000,     0.000,   0
   482,'1 ',   1,  21,  52,     6.000,     3.600,     0.000,     0.000,     0.000,     0.000,   2,    0,  0,     0.000,     0.000,   0
   520,'1 ',   1,  21,  51,    10.977,     3.659,     0.000,     0.000,     0.000,     0.000,   1,    1,  0,     0.000,     0.000,   0
   522,'1 ',   1,  21,  51,    10.101,     6.244,     0.000,     0.000,     0.000,     0.000,   1,    1,  0,     0.000,     0.000,   0
   523,'1 ',   1,  21,  52,    11.000,     3.000,     0.000,     0.000,     0.000,     0.000,   3,    0,  0,     0.000,     0.000,   0
   524,'1 ',   1,  21,  51,     2.729,     1.310,     0.000,     0.000,     0.000,     0.000,   1,    1,  0,     0.000,     0.000,   0
   525,'1 ',   1,  21,  52,    11.000,     3.000,     0.000,     0.000,     0.000,     0.000,   3,    0,  0,     0.000,     0.000,   0
   535,'1 ',   1,  21,  51,    19.800,    11.800,     0.000,     0.000,     0.000,     0.000,   2,    0,  0,     0.000,     0.000,   0
   556,'2 ',   1,  21,  52,     4.269,     2.068,     0.000,     0.000,     0.000,     0.000,   1,    1,  0,     0.000,     0.000,   0
   721,'1 ',   1,  21,  52,     7.635,     2.503,     0.000,     0.000,     0.000,     0.000,   1,    1,  0,     0.000,     0.000,   0
  1201,'1 ',   1,   7,  26,     9.830,     3.277,     0.000,     0.000,     0.000,     0.000,   1,    1,  0,     0.000,     0.000,   0
  1205,'1 ',   1,   7,  26,     8.651,     2.752,     0.000,     0.000,     0.000,     0.000,   1,    1,  0,     0.000,     0.000,   0
  1207,'1 ',   1,   7,  27,     8.303,     2.499,     0.000,     0.000,     0.000,     0.000,   1,    1,  0,     0.000,     0.000,   0
  1208,'1 ',   1,   7,  27,     1.973,     1.163,     0.000,     0.000,     0.000,     0.000,   1,    1,  0,     0.000,     0.000,   0
  1209,'1 ',   1,   7,  26,    12.812,     4.982,     0.000,     0.000,     0.000,     0.000,   1,    1,  0,     0.000,     0.000,   0
  1213,'1 ',   1,   7,  26,     8.000,     2.500,     0.000,     0.000,     0.000,     0.000,   2,    0,  0,     0.000,     0.000,   0
  1215,'1 ',   1,   7,  27,     1.116,     0.459,     0.000,     0.000,     0.000,     0.000,   1,    1,  0,     0.000,     0.000,   0
  1216,'1 ',   1,   7,  27,    16.646,     6.979,     0.000,     0.000,     0.000,     0.000,   1,    1,  0,     0.000,     0.000,   0
  1222,'1 ',   1,   7,  27,     7.500,     3.400,     0.000,     0.000,     0.000,     0.000,   1,    0,  0,     0.000,     0.000,   0
  1223,'1 ',   1,   7,  27,    24.700,     9.000,     0.000,     0.000,     0.000,     0.000,   1,    0,  0,     0.000,     0.000,   0
  1228,'1 ',   1,   7,  27,    10.341,     4.866,     0.000,     0.000,     0.000,     0.000,   1,    1,  0,     0.000,     0.000,   0
  1229,'1 ',   1,   7,  26,    22.020,    11.927,     0.000,     0.000,     0.000,     0.000,   1,    1,  0,     0.000,     0.000,   0
  1230,'1 ',   1,   7,  26,    10.821,     4.446,     0.000,     0.000,     0.000,     0.000,   1,    1,  0,     0.000,     0.000,   0
  1234,'1 ',   1,   7,  27,    16.686,     5.481,     0.000,     0.000,     0.000,     0.000,   1,    1,  0,     0.000,     0.000,   0
  1235,'1 ',   1,   7,  26,    21.740,     7.562,     0.000,     0.000,     0.000,     0.000,   1,    1,  0,     0.000,     0.000,   0
  1236,'1 ',   1,   7,  27,     6.165,     2.534,     0.000,     0.000,     0.000,     0.000,   1,    1,  0,     0.000,     0.000,   0
  1240,'1 ',   1,   7,  27,     5.400,     2.610,     0.000,     0.000,     0.000,     0.000,  10,    1,  0,     0.000,     0.000,   0
  1246,'1 ',   1,   7,  27,     3.406,     1.703,     0.000,     0.000,     0.000,     0.000,   1,    1,  0,     0.000,     0.000,   0
  1248,'1 ',   1,   7,  25,     7.984,     5.807,     0.000,     0.000,     0.000,     0.000,   1,    1,  0,     0.000,     0.000,   0
  1249,'1 ',   1,   7,  26,    13.893,     6.698,     0.000,     0.000,     0.000,     0.000,   1,    1,  0,     0.000,     0.000,   0
  1252,'1 ',   1,   7,  26,    42.382,    11.230,     0.000,     0.000,     0.000,     0.000,   1,    1,  0,     0.000,     0.000,   0
  1254,'1 ',   1,   7,  27,    43.156,    23.265,     0.000,     0.000,     0.000,     0.000,   1,    1,  0,     0.000,     0.000,   0
  1256,'1 ',   1,   7,  25,    11.759,     4.500,     0.000,     0.000,     0.000,     0.000,   1,    1,  0,     0.000,     0.000,   0
  1257,'1 ',   0,   7,  25,     7.890,     4.177,     0.000,     0.000,     0.000,     0.000,   1,    1,  0,     0.000,     0.000,   0
  1261,'1 ',   1,   7,  27,    20.682,     9.003,     0.000,     0.000,     0.000,     0.000,   1,    1,  0,     0.000,     0.000,   0
  1262,'1 ',   1,   7,  27,    12.774,     5.110,     0.000,     0.000,     0.000,     0.000,   1,    1,  0,     0.000,     0.000,   0
  1264,'1 ',   1,   7,  26,    18.035,     7.413,     0.000,     0.000,     0.000,     0.000,   1,    1,  0,     0.000,     0.000,   0
  1266,'1 ',   1,   7,  27,     1.355,     0.556,     0.000,     0.000,     0.000,     0.000,   1,    1,  0,     0.000,     0.000,   0
  1267,'1 ',   1,   7,  27,     9.307,     4.258,     0.000,     0.000,     0.000,     0.000,   1,    1,  0,     0.000,     0.000,   0
  1270,'1 ',   1,   7,  27,     0.637,     0.262,     0.000,     0.000,     0.000,     0.000,   1,    1,  0,     0.000,     0.000,   0
  1271,'1 ',   1,   7,  25,     2.032,     0.726,     0.000,     0.000,     0.000,     0.000,   1,    1,  0,     0.000,     0.000,   0
  1272,'1 ',   1,   7,  26,     6.721,     1.651,     0.000,     0.000,     0.000,     0.000,   1,    1,  0,     0.000,     0.000,   0
  1274,'1 ',   1,   7,  27,    16.928,     4.111,     0.000,     0.000,     0.000,     0.000,   1,    1,  0,     0.000,     0.000,   0
  1275,'1 ',   0,   7,  25,     0.400,     0.100,     0.000,     0.000,     0.000,     0.000,   3,    0,  0,     0.000,     0.000,   0
  1278,'1 ',   1,   7,  27,     7.398,     3.041,     0.000,     0.000,     0.000,     0.000,   1,    1,  0,     0.000,     0.000,   0
  1280,'1 ',   1,   7,  27,     3.000,     1.000,     0.000,     0.000,     0.000,     0.000,   2,    0,  0,     0.000,     0.000,   0
  1283,'1 ',   1,   7,  27,     9.003,     3.406,     0.000,     0.000,     0.000,     0.000,   1,    1,  0,     0.000,     0.000,   0
  1290,'1 ',   1,   7,  26,     3.217,     1.321,     0.000,     0.000,     0.000,     0.000,   1,    1,  0,     0.000,     0.000,   0
  1291,'1 ',   1,   7,  25,    17.856,     5.807,     0.000,     0.000,     0.000,     0.000,   1,    1,  0,     0.000,     0.000,   0
  1292,'1 ',   1,   7,  25,    40.793,    10.598,     0.000,     0.000,     0.000,     0.000,   1,    1,  0,     0.000,     0.000,   0
  1293,'1 ',   1,   7,  25,    14.953,     4.500,     0.000,     0.000,     0.000,     0.000,   1,    1,  0,     0.000,     0.000,   0
  1294,'1 ',   1,   7,  26,    12.100,     6.200,     0.000,     0.000,     0.000,     0.000,   2,    0,  0,     0.000,     0.000,   0
  1295,'1 ',   1,   7,  25,    34.260,    11.614,     0.000,     0.000,     0.000,     0.000,   1,    1,  0,     0.000,     0.000,   0
  1296,'1 ',   1,   7,  26,    20.200,     7.382,     0.000,     0.000,     0.000,     0.000,   1,    1,  0,     0.000,     0.000,   0
  1400,'1 ',   0,   7,  27,    21.000,     6.900,     0.000,     0.000,     0.000,     0.000,   1,    1,  0,     0.000,     0.000,   0
  1400,'S2',   0,   7,  27,     0.084,     0.063,     0.000,     0.000,     0.000,     0.000,   1,    1,  0,     0.000,     0.000,   0
  1500,'1 ',   1,   7,  27,     2.882,     1.185,     0.000,     0.000,     0.000,     0.000,   1,    1,  0,     0.000,     0.000,   0
  1501,'1 ',   1,   7,  27,     2.882,     1.185,     0.000,     0.000,     0.000,     0.000,   1,    1,  0,     0.000,     0.000,   0
  1503,'1 ',   1,   7,  25,     3.114,     0.633,     0.000,     0.000,     0.000,     0.000,   1,    1,  0,     0.000,     0.000,   0
  1504,'1 ',   1,   7,  27,    34.000,    13.600,     0.000,     0.000,     0.000,     0.000,   1,    0,  0,     0.000,     0.000,   0
  1508,'1 ',   1,   7,  25,    19.387,     7.617,     0.000,     0.000,     0.000,     0.000,   1,    1,  0,     0.000,     0.000,   0
  1509,'1 ',   1,   7,  25,    34.406,     8.710,     0.000,     0.000,     0.000,     0.000,   1,    1,  0,     0.000,     0.000,   0
  1510,'1 ',   1,   7,  25,    20.614,     5.807,     0.000,     0.000,     0.000,     0.000,   1,    1,  0,     0.000,     0.000,   0
  1514,'1 ',   1,   7,  26,    22.000,     6.333,     0.000,     0.000,     0.000,     0.000,   2,    0,  0,     0.000,     0.000,   0
  1530,'2 ',   0,   7,  27,    29.000,     9.500,     0.000,     0.000,     0.000,     0.000,   1,    1,  0,     0.000,     0.000,   0
  1540,'1 ',   1,   7,  27,     5.315,     2.244,     0.000,     0.000,     0.000,     0.000,  10,    1,  0,     0.000,     0.000,   0
  1546,'1 ',   1,   7,  27,     2.008,     0.591,     0.000,     0.000,     0.000,     0.000,  10,    1,  0,     0.000,     0.000,   0
  1561,'1 ',   0,   7,  26,     0.000,     0.000,     0.000,     0.000,     0.000,     0.000,   1,    1,  0,     0.000,     0.000,   0
  1563,'1 ',   1,   7,  27,    10.949,     4.380,     0.000,     0.000,     0.000,     0.000,   1,    1,  0,     0.000,     0.000,   0
  1566,'1 ',   1,   7,  26,     8.257,     2.752,     0.000,     0.000,     0.000,     0.000,   1,    1,  0,     0.000,     0.000,   0
  1568,'1 ',   1,   7,  26,     1.901,     0.780,     0.000,     0.000,     0.000,     0.000,   1,    1,  0,     0.000,     0.000,   0
  1570,'1 ',   1,   7,  26,     3.444,     1.416,     0.000,     0.000,     0.000,     0.000,   1,    1,  0,     0.000,     0.000,   0
  1572,'1 ',   1,   7,  26,     1.781,     0.733,     0.000,     0.000,     0.000,     0.000,   1,    1,  0,     0.000,     0.000,   0
  1574,'1 ',   1,   7,  26,    53.593,    12.929,     0.000,     0.000,     0.000,     0.000,   1,    1,  0,     0.000,     0.000,   0
  1581,'1 ',   1,   7,  26,    12.310,     4.103,     0.000,     0.000,     0.000,     0.000,   1,    1,  0,     0.000,     0.000,   0
  1606,'1 ',   1,   7,  27,    12.000,     6.000,     0.000,     0.000,     0.000,     0.000,   3,    0,  0,     0.000,     0.000,   0
  1610,'1 ',   1,   7,  25,     6.469,     2.546,     0.000,     0.000,     0.000,     0.000,   1,    1,  0,     0.000,     0.000,   0
  1620,'1 ',   1,   7,  27,    18.581,     7.636,     0.000,     0.000,     0.000,     0.000,   1,    1,  0,     0.000,     0.000,   0
  1644,'1 ',   1,   7,  27,    15.100,     6.900,     0.000,     0.000,     0.000,     0.000,   2,    0,  0,     0.000,     0.000,   0
  1647,'1 ',   1,   7,  27,    15.000,     5.000,     0.000,     0.000,     0.000,     0.000,   2,    0,  0,     0.000,     0.000,   0
  1818,'1 ',   1,   7,  27,    14.000,     6.000,     0.000,     0.000,     0.000,     0.000,   2,    0,  0,     0.000,     0.000,   0
  1823,'1 ',   1,   7,   2,     3.879,     1.275,     0.000,     0.000,     0.000,     0.000,   1,    1,  0,     0.000,     0.000,   0
  1840,'1 ',   1,   7,  27,     2.165,     0.890,     0.000,     0.000,     0.000,     0.000,   1,    1,  0,     0.000,     0.000,   0
  1841,'1 ',   1,   7,  27,     0.819,     0.336,     0.000,     0.000,     0.000,     0.000,   1,    1,  0,     0.000,     0.000,   0
  1850,'1 ',   1,   7,  26,     8.860,     3.214,     0.000,     0.000,     0.000,     0.000,   1,    1,  0,     0.000,     0.000,   0
  1851,'1 ',   0,   7,  26,     0.000,     0.000,     0.000,     0.000,     0.000,     0.000,   1,    1,  0,     0.000,     0.000,   0
  2200,'1 ',   1,   5,  22,    49.842,    20.955,     0.000,     0.000,     0.000,     0.000,   1,    1,  0,     0.000,     0.000,   0
  2215,'1 ',   1,   5,  21,    65.000,    39.000,     0.000,     0.000,     0.000,     0.000,   2,    0,  0,     0.000,     0.000,   0
  2220,'1 ',   1,   5,  24,    18.000,     7.000,     0.000,     0.000,     0.000,     0.000,   2,    0,  0,     0.000,     0.000,   0
  2221,'1 ',   1,   5,  23,    45.000,    15.000,     0.000,     0.000,     0.000,     0.000,   2,    0,  0,     0.000,     0.000,   0
  2225,'1 ',   1,   5,  23,    12.500,     4.100,     0.000,     0.000,     0.000,     0.000,   2,    0,  0,     0.000,     0.000,   0
  2242,'1 ',   1,   5,  22,    17.961,     9.131,     0.000,     0.000,     0.000,     0.000,   1,    1,  0,     0.000,     0.000,   0
  2243,'1 ',   1,   5,  22,    21.403,    10.627,     0.000,     0.000,     0.000,     0.000,   1,    1,  0,     0.000,     0.000,   0
  2248,'1 ',   1,   5,  22,    28.139,    13.770,     0.000,     0.000,     0.000,     0.000,   1,    1,  0,     0.000,     0.000,   0
  2249,'1 ',   1,   5,  22,    25.296,    11.974,     0.000,     0.000,     0.000,     0.000,   1,    1,  0,     0.000,     0.000,   0
  2258,'1 ',   1,   5,  22,    16.614,     6.286,     0.000,     0.000,     0.000,     0.000,   1,    1,  0,     0.000,     0.000,   0
  2259,'1 ',   1,   5,  22,    21.104,     7.334,     0.000,     0.000,     0.000,     0.000,   1,    1,  0,     0.000,     0.000,   0
  2263,'1 ',   1,   5,  21,     3.500,     1.600,     0.000,     0.000,     0.000,     0.000,   2,    0,  0,     0.000,     0.000,   0
  2266,'1 ',   1,   5,  24,    21.500,    10.600,     0.000,     0.000,     0.000,     0.000,   2,    0,  0,     0.000,     0.000,   0
  2267,'1 ',   1,   5,  21,     3.500,     1.600,     0.000,     0.000,     0.000,     0.000,   2,    0,  0,     0.000,     0.000,   0
  2274,'1 ',   1,   5,  22,    55.979,    21.853,     0.000,     0.000,     0.000,     0.000,   1,    1,  0,     0.000,     0.000,   0
  2277,'1 ',   1,   5,  22,    36.970,    15.267,     0.000,     0.000,     0.000,     0.000,   1,    1,  0,     0.000,     0.000,   0
  2294,'1 ',   1,   5,  23,     9.900,     3.300,     0.000,     0.000,     0.000,     0.000,   2,    0,  0,     0.000,     0.000,   0
  2299,'1 ',   1,   5,  24,     3.500,     1.600,     0.000,     0.000,     0.000,     0.000,   2,    0,  0,     0.000,     0.000,   0
  2303,'1 ',   1,   5,  22,    28.159,    12.649,     0.000,     0.000,     0.000,     0.000,   1,    1,  0,     0.000,     0.000,   0
  2304,'1 ',   1,   5,  23,    42.500,    14.000,     0.000,     0.000,     0.000,     0.000,   2,    0,  0,     0.000,     0.000,   0
  2308,'1 ',   1,   5,  24,    50.000,    17.400,     0.000,     0.000,     0.000,     0.000,   2,    0,  0,     0.000,     0.000,   0
  2309,'1 ',   1,   5,  24,    30.000,     9.000,     0.000,     0.000,     0.000,     0.000,   2,    0,  0,     0.000,     0.000,   0
  2310,'1 ',   1,   5,  24,    59.100,    19.900,     0.000,     0.000,     0.000,     0.000,   2,    0,  0,     0.000,     0.000,   0
  2312,'1 ',   1,   5,  24,     4.770,     3.309,     0.000,     0.000,     0.000,     0.000,   2,    0,  0,     0.000,     0.000,   0
  2315,'1 ',   1,   5,  24,    78.000,    26.000,     0.000,     0.000,     0.000,     0.000,   2,    0,  0,     0.000,     0.000,   0
  2321,'1 ',   1,   5,  24,     3.500,     1.600,     0.000,     0.000,     0.000,     0.000,   2,    0,  0,     0.000,     0.000,   0
  2342,'1 ',   1,   5,  23,   120.000,    36.000,     0.000,     0.000,     0.000,     0.000,   2,    0,  0,     0.000,     0.000,   0
  2343,'1 ',   1,   5,  23,    73.000,    21.000,     0.000,     0.000,     0.000,     0.000,   2,    0,  0,     0.000,     0.000,   0
  2365,'1 ',   1,   5,  23,    21.000,     6.900,     0.000,     0.000,     0.000,     0.000,   2,    0,  0,     0.000,     0.000,   0
  2367,'1 ',   1,   5,  23,     8.100,     2.200,     0.000,     0.000,     0.000,     0.000,   2,    0,  0,     0.000,     0.000,   0
...
0 / END OF LOAD DATA, BEGIN FIXED SHUNT DATA
@!   I,'ID',STATUS,  GL,        BL
    85,'1 ',1,     0.000,  1540.000
    86,'1 ',1,     0.000,  2774.000
  1661,'1 ',1,     0.000,     0.000
  1662,'1 ',1,     0.000,     0.000
  1663,'1 ',1,     0.000,     0.000
  1664,'1 ',1,     0.000,     0.000
  1665,'1 ',1,     0.000,     0.000
  1666,'1 ',1,     0.000,     0.000
  1691,'1 ',1,     0.000,     0.000
  1692,'1 ',1,     0.000,     0.000
  3213,'1 ',1,     0.000,    24.000
  3224,'1 ',1,     0.000,    12.000
  3229,'1 ',1,     0.000,    12.000
  3232,'1 ',1,     0.000,    12.000
  3260,'1 ',1,     0.000,    12.000
  3293,'1 ',1,     0.000,    12.000
  3294,'1 ',1,     0.000,    14.400
  3294,'3 ',1,    48.000,     0.000
  3334,'1 ',1,     0.000,     6.000
  3336,'1 ',1,     0.000,     6.000
  3350,'1 ',1,     0.000,    12.000
  3360,'1 ',1,     0.000,    12.000
  3375,'1 ',1,     0.000,    12.000
  3380,'1 ',1,     0.000,    18.000
  3382,'1 ',1,     0.000,    24.000
  3410,'1 ',1,     0.000,     9.600
  3448,'1 ',1,     0.000,    12.000
  3453,'1 ',1,     0.000,    12.000
  3466,'1 ',1,     0.000,    12.000
  3467,'1 ',1,     0.000,    12.000
  3471,'1 ',1,     0.000,    12.000
  3478,'1 ',1,     0.000,    12.000
  3726,'1 ',1,     0.000,    12.000
  3741,'1 ',1,     0.000,    18.000
  3752,'1 ',1,     0.000,    24.000
  5200,'1 ',1,     0.000,     4.000
  5210,'1 ',1,     0.000,     6.830
  5214,'1 ',1,     0.000,    12.000
  5215,'1 ',1,     0.000,     3.850
  5224,'1 ',1,     0.000,     7.210
  5228,'1 ',1,     0.000,     3.000
  5230,'1 ',1,     0.000,     4.000
  5231,'1 ',1,     0.000,     3.440
  5239,'1 ',1,     0.000,    20.000
  5244,'1 ',1,     0.000,    24.000
  5274,'1 ',1,     0.000,     1.000
  5284,'1 ',1,     0.000,     3.010
  5288,'1 ',1,     0.000,     3.000
  5291,'1 ',1,     0.000,     2.000
  5293,'1 ',1,     0.000,     4.500
  5295,'1 ',1,     0.000,     2.000
  5298,'1 ',1,     0.000,     3.710
  5510,'1 ',1,     0.000,    17.670
  5520,'1 ',1,     0.000,    10.500
  5521,'1 ',1,     0.000,     1.500
  5524,'1 ',1,     0.000,     3.000
  5528,'1 ',1,     0.000,     5.750
  5529,'1 ',1,     0.000,     2.380
  5531,'1 ',1,     0.000,     1.500
  5542,'1 ',1,     0.000,     7.500
  5543,'1 ',1,     0.000,     6.000
  5545,'1 ',0,     0.000,     3.250
  5551,'1 ',1,     0.000,     4.500
  5552,'1 ',1,     0.000,     4.600
  5570,'1 ',1,     0.000,     8.100
  5582,'1 ',1,     0.000,     2.000
  5602,'1 ',1,     0.000,     3.000
  5620,'1 ',1,     0.000,     5.000
  5650,'1 ',1,     0.000,    12.460
  5806,'1 ',1,     0.000,     6.000
  5812,'1 ',1,     0.000,    27.700
  5830,'1 ',1,     0.000,     6.000
  5831,'1 ',1,     0.000,     4.000
  5872,'1 ',1,     0.000,     3.000
  8583,'1 ',1,     0.000,     7.800
 40214,'1 ',1,     0.000,    24.000
 40222,'1 ',1,     0.000,    12.000
 40240,'1 ',1,     0.000,    12.000
 40249,'1 ',1,     0.000,    24.000
 41002,'1 ',0,     0.000,    80.000
 41002,'2 ',0,     0.000,    80.000
 41208,'1 ',1,     0.000,    12.000
 41401,'1 ',1,     0.000,    12.000
 41402,'1 ',1,     0.000,    72.000
 41403,'1 ',1,     0.000,    24.000
 41404,'1 ',1,     0.000,    32.000
 41405,'1 ',1,     0.000,    24.000
 41406,'1 ',1,     0.000,    32.000
 41407,'1 ',1,     0.000,     6.000
 41410,'1 ',1,     0.000,    72.000
 41411,'1 ',1,     0.000,    48.000
 41412,'1 ',1,     0.000,    24.000
 41414,'1 ',1,     0.000,     3.000
 41415,'1 ',1,     0.000,    24.000
 41416,'1 ',1,     0.000,    18.000
 41419,'1 ',1,     0.000,    18.000
 41424,'1 ',1,     0.000,    16.000
 41430,'1 ',1,     0.000,    18.000
 41431,'1 ',1,     0.000,    18.000
 41432,'1 ',1,     0.000,    18.000
 41433,'1 ',1,     0.000,    12.000
 41434,'1 ',1,     0.000,    24.000
 41437,'1 ',1,     0.000,     9.000
 41438,'1 ',1,     0.000,     3.000
 41439,'1 ',1,     0.000,    18.000
 41440,'1 ',1,     0.000,    12.000
 41442,'1 ',1,     0.000,     6.000
 41443,'1 ',1,     0.000,     9.000
 41444,'1 ',1,     0.000,    12.000
 41445,'1 ',1,     0.000,    18.000
 41446,'1 ',1,     0.000,    16.000
 41448,'1 ',1,     0.000,     3.000
 41454,'1 ',1,     0.000,    18.000
 41455,'1 ',1,     0.000,    18.000
 41457,'1 ',1,     0.000,    18.000
 41459,'1 ',1,     0.000,    24.000
 41516,'1 ',1,     0.000,     6.000
 41531,'1 ',1,     0.000,     6.000
 41810,'3 ',0,     0.000,    50.000
 41810,'4 ',0,     0.000,    50.000
 42401,'1 ',1,     0.000,     6.000
 42403,'1 ',1,     0.000,    12.000
 42406,'1 ',1,     0.000,     6.000
 42407,'1 ',1,     0.000,    12.000
 42408,'1 ',1,     0.000,     6.000
 42409,'1 ',1,     0.000,     6.000
 42412,'1 ',1,     0.000,    16.000
 42413,'1 ',1,     0.000,     6.000
 42414,'1 ',1,     0.000,     6.000
 42415,'1 ',1,     0.000,    12.000
 42416,'1 ',1,     0.000,    12.000
 42417,'1 ',1,     0.000,    12.000
 42418,'1 ',1,     0.000,    12.000
 42419,'1 ',1,     0.000,     6.000
 42424,'1 ',1,     0.000,     6.000
 42425,'1 ',1,     0.000,     3.000
 42426,'1 ',1,     0.000,    12.000
 42512,'1 ',1,     0.000,     8.000
 42515,'1 ',1,     0.000,     6.000
 42615,'1 ',1,     0.000,     6.000
 43207,'1 ',1,     0.000,    12.000
 43403,'1 ',1,     0.000,    12.000
 43404,'1 ',1,     0.000,     6.000
 43405,'1 ',1,     0.000,     6.000
 43406,'1 ',1,     0.000,     6.000
 43407,'1 ',1,     0.000,     6.000
 43408,'1 ',1,     0.000,     6.000
 43412,'1 ',1,     0.000,     6.000
 43413,'1 ',1,     0.000,     3.000
 43414,'1 ',1,     0.000,    24.000
 43415,'1 ',1,     0.000,     6.000
 43417,'1 ',1,     0.000,     6.000
 44302,'1 ',1,     0.000,     6.000
 44400,'1 ',1,     0.000,     6.000
 44401,'1 ',1,     0.000,     6.000
 44402,'1 ',1,     0.000,     6.000
 44403,'1 ',1,     0.000,    24.000
 44404,'1 ',1,     0.000,     6.000
 44405,'1 ',1,     0.000,     6.000
 44408,'1 ',1,     0.000,     3.600
 44409,'1 ',1,     0.000,     6.000
 44410,'1 ',1,     0.000,     3.000
 44411,'1 ',1,     0.000,     6.000
 44412,'1 ',1,     0.000,     6.000
 44413,'1 ',1,     0.000,     6.000
 44501,'1 ',1,     0.000,     6.000
 44503,'1 ',1,     0.000,    24.000
 45235,'1 ',1,     0.000,     6.000
 45400,'1 ',1,     0.000,     6.000
 45403,'1 ',1,     0.000,    12.000
 45404,'1 ',1,     0.000,    12.000
 45405,'1 ',1,     0.000,    12.000
 45406,'1 ',1,     0.000,     3.000
 45408,'1 ',1,     0.000,     6.000
 45409,'1 ',1,     0.000,    12.000
 46203,'1 ',1,     0.000,     6.000
 46400,'1 ',1,     0.000,     3.000
 46401,'1 ',1,     0.000,     3.000
 46402,'1 ',1,     0.000,     3.000
 90100,'1 ',1,     0.000,     3.308
 90160,'1 ',1,     0.000,     1.860
 90170,'1 ',1,     0.000,     1.993
 90200,'1 ',1,     0.000,     2.352
 90300,'1 ',1,     0.000,     2.666
 90481,'1 ',0,     0.000,     2.340
 90500,'1 ',1,     0.000,     5.561
 90511,'1 ',1,     0.000,     0.400
 90512,'1 ',1,     0.000,     0.400
 90513,'1 ',1,     0.000,     0.400
 90700,'1 ',1,     0.000,     1.732
 92401,'1 ',0,     0.000,    15.000
 92870,'1 ',1,     0.000,    63.000
 95101,'1 ',1,     0.000,    31.500
 95101,'2 ',1,     0.000,    28.000
 95101,'3 ',1,     0.000,    28.000
 95101,'4 ',1,     0.000,    28.000
 95101,'5 ',1,     0.000,    28.000
 95871,'1 ',1,     0.000,    21.000
 95872,'1 ',1,     0.000,    28.000
 95873,'1 ',1,     0.000,    14.000
...
0 / END OF FIXED SHUNT DATA, BEGIN GENERATOR DATA
@!   I,'ID',      PG,        QG,        QT,        QB,     VS,    IREG,     MBASE,     ZR,         ZX,         RT,         XT,     GTAP,STAT, RMPCT,      PT,        PB,    O1,    F1,  O2,    F2,  O3,    F3,  O4,    F4,WMOD, WPF,NREG
    30,'1 ',   906.837,   240.911,  9999.000, -9999.000,1.05000,    30,  1000.000, 1.26500E-2, 1.44500E-1, 0.00000E+0, 0.00000E+0,1.00000,0,  100.0,  1100.000, -1100.000,  10,1.0000
    87,'1 ', -3155.182, -1547.985,  9999.000, -9999.000,1.04000,    87, 18000.000, 0.00000E+0, 1.00000E+0, 0.00000E+0, 0.00000E+0,1.00000,1,  100.0,  9999.000, -9999.000,   1,1.0000
   102,'1 ',   110.000,    -4.290,    45.000,   -47.000,1.04000,   102,   140.000, 0.00000E+0, 2.20000E-1, 0.00000E+0, 0.00000E+0,1.00000,1,  100.0,   133.000,     0.000,   6,1.0000
   104,'1 ',   110.000,    -4.290,    45.000,   -47.000,1.04000,   104,   140.000, 0.00000E+0, 2.20000E-1, 0.00000E+0, 0.00000E+0,1.00000,1,  100.0,   133.000,     0.000,   6,1.0000
   106,'1 ',   110.000,    -4.290,    45.000,   -47.000,1.04000,   106,   140.000, 0.00000E+0, 2.20000E-1, 0.00000E+0, 0.00000E+0,1.00000,1,  100.0,   133.000,     0.000,   6,1.0000
   108,'1 ',   110.000,    -4.290,    45.000,   -47.000,1.04000,   108,   140.000, 0.00000E+0, 2.20000E-1, 0.00000E+0, 0.00000E+0,1.00000,1,  100.0,   133.000,     0.000,   6,1.0000
   190,'9 ',   150.000,    66.940,    99.600,   -40.800,1.00000,   259,   184.500, 0.00000E+0, 1.88000E-1, 0.00000E+0, 0.00000E+0,1.00000,1,  100.0,   165.000, -9999.000,   8,1.0000
   191,'10',   150.000,    66.940,    99.600,   -40.800,1.00000,   259,   184.500, 0.00000E+0, 1.88000E-1, 0.00000E+0, 0.00000E+0,1.00000,1,  100.0,   165.000, -9999.000,   8,1.0000
   192,'11',   140.000,    66.940,   114.000,   -80.000,1.00000,   259,   190.800, 0.00000E+0, 1.88000E-1, 0.00000E+0, 0.00000E+0,1.00000,1,  100.0,   140.000,    80.000,   8,1.0000
   201,'1 ',    18.000,    15.000,    15.000,   -14.000,1.05000,   201,    39.500, 0.00000E+0, 1.30000E-1, 0.00000E+0, 0.00000E+0,1.00000,1,  100.0,    20.000,     0.000,   4,1.0000
   202,'2 ',    19.999,    16.889,    20.000,   -14.000,1.05000,   202,    39.500, 0.00000E+0, 1.30000E-1, 0.00000E+0, 0.00000E+0,1.00000,1,  100.0,  9999.000,     0.000,   4,1.0000
   203,'3 ',    19.999,    16.889,    20.000,   -14.000,1.05000,   203,    39.500, 0.00000E+0, 1.30000E-1, 0.00000E+0, 0.00000E+0,1.00000,1,  100.0,  9999.000,     0.000,   4,1.0000
   204,'4 ',    20.000,    16.889,    20.000,   -14.000,1.05000,   204,    39.500, 0.00000E+0, 1.30000E-1, 0.00000E+0, 0.00000E+0,1.00000,1,  100.0,    20.000,     0.000,   4,1.0000
   205,'5 ',    38.000,    19.191,    22.000,    -6.000,1.05000,   205,    45.400, 0.00000E+0, 1.66000E-1, 0.00000E+0, 0.00000E+0,1.00000,1,  100.0,    38.200,     0.000,   4,1.0000
   206,'6 ',    32.000,    16.319,    20.000,    -6.000,1.03000,   206,    45.400, 0.00000E+0, 1.66000E-1, 0.00000E+0, 0.00000E+0,1.00000,1,  100.0,    38.200,     0.000,   4,1.0000
   207,'7 ',    38.000,    -6.250,    20.900,   -13.200,1.00000,   216,    48.240, 0.00000E+0, 1.69000E-1, 0.00000E+0, 0.00000E+0,1.00000,0,  100.0,    41.000,     0.000,   8,1.0000
   208,'8 ',    38.000,    -6.250,    28.181,   -21.273,1.00000,   216,    48.200, 0.00000E+0, 1.69000E-1, 0.00000E+0, 0.00000E+0,1.00000,0,  100.0,    49.000,     0.000,   8,1.0000
   209,'9 ',    32.000,    -6.250,    30.000,   -17.656,1.00000,   216,    50.350, 0.00000E+0, 1.83000E-1, 0.00000E+0, 0.00000E+0,1.00000,0,  100.0,    50.350,     0.000,   8,1.0000
   219,'21',    18.000,     7.511,    15.000,   -10.000,1.05000,   219,    31.500, 0.00000E+0, 1.50000E-1, 0.00000E+0, 0.00000E+0,1.00000,0,  100.0,    21.000, -9999.000,   4,1.0000
   219,'22',    18.000,     7.511,    15.000,   -10.000,1.05000,   219,    31.500, 0.00000E+0, 1.50000E-1, 0.00000E+0, 0.00000E+0,1.00000,0,  100.0,    21.000,     0.000,   4,1.0000
   242,'1 ',    -0.440,    -0.225,    -0.225,    -0.225,1.00000,   242,     0.543, 0.00000E+0, 1.57330E-1, 0.00000E+0, 0.00000E+0,1.00000,0,  100.0,  9999.000, -9999.000,   1,1.0000
   242,'2 ',    -0.659,    -0.338,    -0.338,    -0.338,1.00000,   242,     0.815, 0.00000E+0, 1.57330E-1, 0.00000E+0, 0.00000E+0,1.00000,0,  100.0,  9999.000, -9999.000,   1,1.0000
...